<?xml version="1.0" encoding="UTF-8"?>

<!-- generated on 2025-10-23 13:21:29 by Eclipse SUMO netconvert Version 1.24.0
<netconvertConfiguration xmlns:xsi="http://www.w3.org/2001/XMLSchema-instance" xsi:noNamespaceSchemaLocation="http://sumo.dlr.de/xsd/netconvertConfiguration.xsd">

    <input>
        <opendrive-files value="C:\Users\Adithya\Downloads\CARLA_0.9.16\CarlaUE4\Content\Carla\Maps\OpenDrive\Town04.xodr"/>
    </input>

    <output>
        <output-file value="Town04.net.xml"/>
    </output>

    <processing>
        <lefthand value="true"/>
    </processing>

    <junctions>
        <no-turnarounds.except-deadend value="true"/>
    </junctions>

</netconvertConfiguration>
-->

<net version="1.20" junctionCornerDetail="5" rectangularLaneCut="true" lefthand="true" limitTurnSpeed="5.50" xmlns:xsi="http://www.w3.org/2001/XMLSchema-instance" xsi:noNamespaceSchemaLocation="http://sumo.dlr.de/xsd/net_file.xsd">

    <location netOffset="503.02,423.76" convBoundary="0.00,-0.00,904.91,807.65" origBoundary="0.000000,0.000000,0.000000,0.000000" projParameter="+proj=tmerc +lat_0=0 +lon_0=0 +k=1 +x_0=0 +y_0=0 +datum=WGS84 +units=m  +vunits=m +no_defs "/>

    <type id="driving" priority="1" speed="13.89" disallow="pedestrian tram rail_urban rail rail_electric rail_fast ship container cable_car subway aircraft wheelchair scooter drone" width="3.65"/>

    <edge id=":1008_0" function="internal">
        <lane id=":1008_0_0" index="0" disallow="pedestrian tram rail_urban rail rail_electric rail_fast ship container cable_car subway aircraft wheelchair scooter drone" speed="13.89" length="20.79" width="3.50" shape="770.37,542.43,0.02 749.58,542.77,0.02">
            <param key="signalID" value="1636 1635 1634"/>
        </lane>
    </edge>
    <edge id=":1008_1" function="internal">
        <lane id=":1008_1_0" index="0" disallow="pedestrian tram rail_urban rail rail_electric rail_fast ship container cable_car subway aircraft wheelchair scooter drone" speed="9.24" length="5.83" width="3.50" shape="770.37,542.43,0.02 764.87,543.20,0.02 764.62,543.33,0.02">
            <param key="signalID" value="1636"/>
        </lane>
    </edge>
    <edge id=":1008_6" function="internal">
        <lane id=":1008_6_0" index="0" disallow="pedestrian tram rail_urban rail rail_electric rail_fast ship container cable_car subway aircraft wheelchair scooter drone" speed="9.24" length="13.15" width="3.50" shape="764.62,543.33,0.02 760.94,545.30,0.02 758.59,548.72,0.02 757.82,553.48,0.02">
            <param key="signalID" value="1636"/>
        </lane>
    </edge>
    <edge id=":1008_2" function="internal">
        <lane id=":1008_2_0" index="0" disallow="pedestrian tram rail_urban rail rail_electric rail_fast ship container cable_car subway aircraft wheelchair scooter drone" speed="7.85" length="13.39" width="3.50" shape="761.32,553.47,0.02 761.88,550.23,0.02 763.59,547.89,0.02 766.43,546.46,0.02 770.43,545.93,0.02">
            <param key="signalID" value="1634"/>
        </lane>
    </edge>
    <edge id=":1008_3" function="internal">
        <lane id=":1008_3_0" index="0" disallow="pedestrian tram rail_urban rail rail_electric rail_fast ship container cable_car subway aircraft wheelchair scooter drone" speed="8.96" length="18.16" width="3.50" shape="761.32,553.47,0.02 760.58,548.71,0.02 758.37,545.35,0.02 754.71,543.37,0.02 749.58,542.77,0.02">
            <param key="signalID" value="1634 1636"/>
        </lane>
    </edge>
    <edge id=":1008_4" function="internal">
        <lane id=":1008_4_0" index="0" disallow="pedestrian tram rail_urban rail rail_electric rail_fast ship container cable_car subway aircraft wheelchair scooter drone" speed="7.53" length="12.46" width="3.50" shape="749.64,546.27,0.02 753.21,546.67,0.02 755.76,548.00,0.02 757.30,550.27,0.02 757.82,553.48,0.02">
            <param key="signalID" value="1635"/>
        </lane>
    </edge>
    <edge id=":1008_5" function="internal">
        <lane id=":1008_5_0" index="0" disallow="pedestrian tram rail_urban rail rail_electric rail_fast ship container cable_car subway aircraft wheelchair scooter drone" speed="13.89" length="20.79" width="3.50" shape="749.64,546.27,0.02 770.43,545.93,0.02">
            <param key="signalID" value="1635"/>
        </lane>
    </edge>
    <edge id=":1061_0" function="internal">
        <lane id=":1061_0_0" index="0" disallow="pedestrian tram rail_urban rail rail_electric rail_fast ship container cable_car subway aircraft wheelchair scooter drone" speed="13.89" length="75.27" width="3.50" shape="494.65,282.35 494.27,357.62"/>
        <lane id=":1061_0_1" index="1" disallow="pedestrian tram rail_urban rail rail_electric rail_fast ship container cable_car subway aircraft wheelchair scooter drone" speed="13.89" length="75.27" width="3.50" shape="498.15,282.37 497.77,357.64"/>
        <lane id=":1061_0_2" index="2" disallow="pedestrian tram rail_urban rail rail_electric rail_fast ship container cable_car subway aircraft wheelchair scooter drone" speed="13.89" length="75.27" width="3.50" shape="501.65,282.39 501.27,357.66"/>
        <lane id=":1061_0_3" index="3" disallow="pedestrian tram rail_urban rail rail_electric rail_fast ship container cable_car subway aircraft wheelchair scooter drone" speed="13.89" length="75.27" width="3.50" shape="505.15,282.40 504.77,357.67"/>
    </edge>
    <edge id=":1061_4" function="internal">
        <lane id=":1061_4_0" index="0" disallow="pedestrian tram rail_urban rail rail_electric rail_fast ship container cable_car subway aircraft wheelchair scooter drone" speed="13.89" length="80.81" width="3.50" shape="535.38,288.29 526.10,300.66 512.29,322.85 499.75,345.10 494.27,357.62"/>
    </edge>
    <edge id=":1061_5" function="internal">
        <lane id=":1061_5_0" index="0" disallow="pedestrian tram rail_urban rail rail_electric rail_fast ship container cable_car subway aircraft wheelchair scooter drone" speed="13.89" length="75.27" width="3.50" shape="511.77,357.71 512.15,282.44"/>
    </edge>
    <edge id=":1061_6" function="internal">
        <lane id=":1061_6_0" index="0" disallow="pedestrian tram rail_urban rail rail_electric rail_fast ship container cable_car subway aircraft wheelchair scooter drone" speed="13.89" length="80.78" width="3.50" shape="511.77,357.71 506.42,345.04,0.00 494.11,322.65,0.00 480.54,300.35,0.00 471.40,287.99,0.00"/>
    </edge>
    <edge id=":1061_7" function="internal">
        <lane id=":1061_7_0" index="0" disallow="pedestrian tram rail_urban rail rail_electric rail_fast ship container cable_car subway aircraft wheelchair scooter drone" speed="13.89" length="75.27" width="3.50" shape="508.27,357.69 508.65,282.42"/>
        <lane id=":1061_7_1" index="1" disallow="pedestrian tram rail_urban rail rail_electric rail_fast ship container cable_car subway aircraft wheelchair scooter drone" speed="13.89" length="75.27" width="3.50" shape="504.77,357.67 505.15,282.40"/>
        <lane id=":1061_7_2" index="2" disallow="pedestrian tram rail_urban rail rail_electric rail_fast ship container cable_car subway aircraft wheelchair scooter drone" speed="13.89" length="75.27" width="3.50" shape="501.27,357.66 501.65,282.39"/>
    </edge>
    <edge id=":1082_0" function="internal">
        <lane id=":1082_0_0" index="0" disallow="pedestrian tram rail_urban rail rail_electric rail_fast ship container cable_car subway aircraft wheelchair scooter drone" speed="13.89" length="62.02" width="3.50" shape="631.22,392.26,10.05 569.28,392.91,10.99"/>
        <lane id=":1082_0_1" index="1" disallow="pedestrian tram rail_urban rail rail_electric rail_fast ship container cable_car subway aircraft wheelchair scooter drone" speed="13.89" length="62.02" width="3.50" shape="631.28,395.76,10.05 569.29,396.41,10.99"/>
        <lane id=":1082_0_2" index="2" disallow="pedestrian tram rail_urban rail rail_electric rail_fast ship container cable_car subway aircraft wheelchair scooter drone" speed="13.89" length="62.02" width="3.50" shape="631.34,399.26,10.05 569.30,399.91,10.99"/>
        <lane id=":1082_0_3" index="3" disallow="pedestrian tram rail_urban rail rail_electric rail_fast ship container cable_car subway aircraft wheelchair scooter drone" speed="13.89" length="62.02" width="3.50" shape="631.40,402.76,10.05 569.32,403.41,10.99"/>
    </edge>
    <edge id=":1082_4" function="internal">
        <lane id=":1082_4_0" index="0" disallow="pedestrian tram rail_urban rail rail_electric rail_fast ship container cable_car subway aircraft wheelchair scooter drone" speed="13.89" length="70.82" width="3.50" shape="625.49,435.72,10.31 614.98,426.08,10.45 596.90,411.69,10.67 579.07,398.61,10.88 569.28,392.91,10.99"/>
    </edge>
    <edge id=":1082_5" function="internal">
        <lane id=":1082_5_0" index="0" disallow="pedestrian tram rail_urban rail rail_electric rail_fast ship container cable_car subway aircraft wheelchair scooter drone" speed="13.89" length="62.18" width="3.50" shape="569.35,410.41,10.99 631.52,409.75,10.05"/>
    </edge>
    <edge id=":1082_6" function="internal">
        <lane id=":1082_6_0" index="0" disallow="pedestrian tram rail_urban rail rail_electric rail_fast ship container cable_car subway aircraft wheelchair scooter drone" speed="13.89" length="71.31" width="3.50" shape="569.35,410.41,10.99 579.29,404.55,10.82 597.09,391.15,10.50 615.00,376.39,10.16 625.29,366.49,9.95"/>
    </edge>
    <edge id=":1082_7" function="internal">
        <lane id=":1082_7_0" index="0" disallow="pedestrian tram rail_urban rail rail_electric rail_fast ship container cable_car subway aircraft wheelchair scooter drone" speed="13.89" length="62.09" width="3.50" shape="569.33,406.91,10.99 631.46,406.25,10.05"/>
        <lane id=":1082_7_1" index="1" disallow="pedestrian tram rail_urban rail rail_electric rail_fast ship container cable_car subway aircraft wheelchair scooter drone" speed="13.89" length="62.09" width="3.50" shape="569.32,403.41,10.99 631.40,402.76,10.05"/>
        <lane id=":1082_7_2" index="2" disallow="pedestrian tram rail_urban rail rail_electric rail_fast ship container cable_car subway aircraft wheelchair scooter drone" speed="13.89" length="62.09" width="3.50" shape="569.30,399.91,10.99 631.34,399.26,10.05"/>
    </edge>
    <edge id=":1103_0" function="internal">
        <lane id=":1103_0_0" index="0" disallow="pedestrian tram rail_urban rail rail_electric rail_fast ship container cable_car subway aircraft wheelchair scooter drone" speed="13.89" length="22.88" width="3.50" shape="644.33,593.61,0.20 621.45,593.74,0.20">
            <param key="signalID" value="1638 1637"/>
        </lane>
    </edge>
    <edge id=":1103_1" function="internal">
        <lane id=":1103_1_0" index="0" disallow="pedestrian tram rail_urban rail rail_electric rail_fast ship container cable_car subway aircraft wheelchair scooter drone" speed="9.63" length="6.18" width="3.50" shape="644.33,593.61,0.20 638.20,594.45,0.15">
            <param key="signalID" value="1637"/>
        </lane>
    </edge>
    <edge id=":1103_6" function="internal">
        <lane id=":1103_6_0" index="0" disallow="pedestrian tram rail_urban rail rail_electric rail_fast ship container cable_car subway aircraft wheelchair scooter drone" speed="9.63" length="15.36" width="3.50" shape="638.20,594.45,0.15 633.90,596.89,0.11 631.43,600.93,0.08 630.79,606.58,0.04">
            <param key="signalID" value="1637"/>
        </lane>
    </edge>
    <edge id=":1103_2" function="internal">
        <lane id=":1103_2_0" index="0" disallow="pedestrian tram rail_urban rail rail_electric rail_fast ship container cable_car subway aircraft wheelchair scooter drone" speed="8.32" length="15.75" width="3.50" shape="634.29,606.43,0.04 634.77,602.37,0.08 636.61,599.47,0.11 639.80,597.71,0.15 644.35,597.11,0.20">
            <param key="signalID" value="1639"/>
        </lane>
    </edge>
    <edge id=":1103_3" function="internal">
        <lane id=":1103_3_0" index="0" disallow="pedestrian tram rail_urban rail rail_electric rail_fast ship container cable_car subway aircraft wheelchair scooter drone" speed="9.65" length="20.42" width="3.50" shape="634.29,606.43,0.04 633.28,600.85,0.08 630.81,596.88,0.12 626.86,594.51,0.15 621.45,593.74,0.20">
            <param key="signalID" value="1639"/>
        </lane>
    </edge>
    <edge id=":1103_4" function="internal">
        <lane id=":1103_4_0" index="0" disallow="pedestrian tram rail_urban rail rail_electric rail_fast ship container cable_car subway aircraft wheelchair scooter drone" speed="8.33" length="14.93" width="3.50" shape="621.47,597.24,0.20 625.40,597.80,0.15 628.26,599.55,0.12 630.06,602.47,0.08 630.79,606.58,0.04">
            <param key="signalID" value="1638 1637"/>
        </lane>
    </edge>
    <edge id=":1103_5" function="internal">
        <lane id=":1103_5_0" index="0" disallow="pedestrian tram rail_urban rail rail_electric rail_fast ship container cable_car subway aircraft wheelchair scooter drone" speed="13.89" length="22.88" width="3.50" shape="621.47,597.24,0.20 644.35,597.11,0.20">
            <param key="signalID" value="1639 1638"/>
        </lane>
    </edge>
    <edge id=":1159_0" function="internal">
        <lane id=":1159_0_0" index="0" disallow="pedestrian tram rail_urban rail rail_electric rail_fast ship container cable_car subway aircraft wheelchair scooter drone" speed="13.89" length="69.23" width="3.50" shape="527.16,712.82 520.72,697.71 515.52,680.28 512.00,662.44 510.61,646.07"/>
    </edge>
    <edge id=":1159_1" function="internal">
        <lane id=":1159_1_0" index="0" disallow="pedestrian tram rail_urban rail rail_electric rail_fast ship container cable_car subway aircraft wheelchair scooter drone" speed="13.89" length="84.49" width="3.50" shape="527.16,712.82 515.51,696.51 498.41,677.33 481.92,659.98 472.09,649.14"/>
        <lane id=":1159_1_1" index="1" disallow="pedestrian tram rail_urban rail rail_electric rail_fast ship container cable_car subway aircraft wheelchair scooter drone" speed="13.89" length="84.49" width="3.50" shape="527.16,712.82 515.07,696.83 497.01,678.37 479.55,661.74 469.28,651.22"/>
    </edge>
    <edge id=":1159_3" function="internal">
        <lane id=":1159_3_0" index="0" disallow="pedestrian tram rail_urban rail rail_electric rail_fast ship container cable_car subway aircraft wheelchair scooter drone" speed="13.89" length="3.39" width="3.50" shape="524.06,714.43 522.74,711.31"/>
        <lane id=":1159_3_1" index="1" disallow="pedestrian tram rail_urban rail rail_electric rail_fast ship container cable_car subway aircraft wheelchair scooter drone" speed="13.89" length="17.20" width="3.50" shape="520.95,716.04 514.39,700.44 514.31,700.17"/>
        <lane id=":1159_3_2" index="2" disallow="pedestrian tram rail_urban rail rail_electric rail_fast ship container cable_car subway aircraft wheelchair scooter drone" speed="13.89" length="24.95" width="3.50" shape="517.84,717.65 511.22,701.81 509.02,694.35"/>
    </edge>
    <edge id=":1159_10" function="internal">
        <lane id=":1159_10_0" index="0" disallow="pedestrian tram rail_urban rail rail_electric rail_fast ship container cable_car subway aircraft wheelchair scooter drone" speed="13.89" length="67.46" width="3.50" shape="522.74,711.31 517.55,699.08 512.21,681.11 508.56,662.72 507.11,646.10"/>
        <lane id=":1159_10_1" index="0" disallow="pedestrian tram rail_urban rail rail_electric rail_fast ship container cable_car subway aircraft wheelchair scooter drone" speed="13.89" length="55.26" width="3.50" shape="514.31,700.17 508.91,681.93 505.12,663.01 503.61,646.14"/>
        <lane id=":1159_10_2" index="0" disallow="pedestrian tram rail_urban rail rail_electric rail_fast ship container cable_car subway aircraft wheelchair scooter drone" speed="13.89" length="49.13" width="3.50" shape="509.02,694.35 505.61,682.76 501.68,663.29 500.11,646.18"/>
    </edge>
    <edge id=":1159_6" function="internal">
        <lane id=":1159_6_0" index="0" disallow="pedestrian tram rail_urban rail rail_electric rail_fast ship container cable_car subway aircraft wheelchair scooter drone" speed="13.89" length="74.88" width="3.50" shape="493.11,646.26 494.80,663.86 499.00,684.41 504.88,704.54 511.63,720.88"/>
        <lane id=":1159_6_1" index="1" disallow="pedestrian tram rail_urban rail rail_electric rail_fast ship container cable_car subway aircraft wheelchair scooter drone" speed="13.89" length="74.88" width="3.50" shape="496.61,646.22 498.24,663.58 502.30,683.59 508.05,703.18 514.74,719.26"/>
        <lane id=":1159_6_2" index="2" disallow="pedestrian tram rail_urban rail rail_electric rail_fast ship container cable_car subway aircraft wheelchair scooter drone" speed="13.89" length="74.88" width="3.50" shape="500.11,646.18 501.68,663.29 505.61,682.76 511.22,701.81 517.84,717.65"/>
        <lane id=":1159_6_3" index="3" disallow="pedestrian tram rail_urban rail rail_electric rail_fast ship container cable_car subway aircraft wheelchair scooter drone" speed="13.89" length="74.88" width="3.50" shape="503.61,646.14 505.12,663.01 508.91,681.93 514.39,700.44 520.95,716.04"/>
    </edge>
    <edge id=":1176_0" function="internal">
        <lane id=":1176_0_0" index="0" disallow="pedestrian tram rail_urban rail rail_electric rail_fast ship container cable_car subway aircraft wheelchair scooter drone" speed="13.89" length="53.21" width="3.50" shape="435.38,393.40,9.84 382.18,393.47,8.75"/>
    </edge>
    <edge id=":1176_1" function="internal">
        <lane id=":1176_1_0" index="0" disallow="pedestrian tram rail_urban rail rail_electric rail_fast ship container cable_car subway aircraft wheelchair scooter drone" speed="13.89" length="59.94" width="3.50" shape="435.38,393.40,9.84 428.18,398.78,9.76 414.50,411.13,9.59 400.29,424.79,9.41 391.49,434.10,9.29"/>
    </edge>
    <edge id=":1176_2" function="internal">
        <lane id=":1176_2_0" index="0" disallow="pedestrian tram rail_urban rail rail_electric rail_fast ship container cable_car subway aircraft wheelchair scooter drone" speed="13.89" length="53.21" width="3.50" shape="435.39,396.90,9.84 382.19,396.97,8.75"/>
        <lane id=":1176_2_1" index="1" disallow="pedestrian tram rail_urban rail rail_electric rail_fast ship container cable_car subway aircraft wheelchair scooter drone" speed="13.89" length="53.21" width="3.50" shape="435.39,400.40,9.84 382.19,400.47,8.75"/>
        <lane id=":1176_2_2" index="2" disallow="pedestrian tram rail_urban rail rail_electric rail_fast ship container cable_car subway aircraft wheelchair scooter drone" speed="13.89" length="53.21" width="3.50" shape="435.39,403.90,9.84 382.20,403.97,8.75"/>
    </edge>
    <edge id=":1176_5" function="internal">
        <lane id=":1176_5_0" index="0" disallow="pedestrian tram rail_urban rail rail_electric rail_fast ship container cable_car subway aircraft wheelchair scooter drone" speed="13.89" length="53.21" width="3.50" shape="382.20,410.97,8.75 435.40,410.90,9.84"/>
        <lane id=":1176_5_1" index="1" disallow="pedestrian tram rail_urban rail rail_electric rail_fast ship container cable_car subway aircraft wheelchair scooter drone" speed="13.89" length="53.21" width="3.50" shape="382.20,407.47,8.75 435.40,407.40,9.84"/>
        <lane id=":1176_5_2" index="2" disallow="pedestrian tram rail_urban rail rail_electric rail_fast ship container cable_car subway aircraft wheelchair scooter drone" speed="13.89" length="53.21" width="3.50" shape="382.20,403.97,8.75 435.39,403.90,9.84"/>
        <lane id=":1176_5_3" index="3" disallow="pedestrian tram rail_urban rail rail_electric rail_fast ship container cable_car subway aircraft wheelchair scooter drone" speed="13.89" length="53.21" width="3.50" shape="382.19,400.47,8.75 435.39,400.40,9.84"/>
    </edge>
    <edge id=":1176_9" function="internal">
        <lane id=":1176_9_0" index="0" disallow="pedestrian tram rail_urban rail rail_electric rail_fast ship container cable_car subway aircraft wheelchair scooter drone" speed="13.89" length="62.71" width="3.50" shape="387.83,370.19,8.70 397.25,379.44,8.94 412.66,393.11,9.31 427.54,405.50,9.67 435.40,410.90,9.84"/>
    </edge>
    <edge id=":1197_0" function="internal">
        <lane id=":1197_0_0" index="0" disallow="pedestrian tram rail_urban rail rail_electric rail_fast ship container cable_car subway aircraft wheelchair scooter drone" speed="13.89" length="26.69" width="3.50" shape="577.64,593.99,0.20 550.95,594.14,0.20">
            <param key="signalID" value="1642 1640"/>
        </lane>
    </edge>
    <edge id=":1197_1" function="internal">
        <lane id=":1197_1_0" index="0" disallow="pedestrian tram rail_urban rail rail_electric rail_fast ship container cable_car subway aircraft wheelchair scooter drone" speed="10.07" length="7.06" width="3.50" shape="577.64,593.99,0.20 570.62,594.80,0.15">
            <param key="signalID" value="1640"/>
        </lane>
    </edge>
    <edge id=":1197_6" function="internal">
        <lane id=":1197_6_0" index="0" disallow="pedestrian tram rail_urban rail rail_electric rail_fast ship container cable_car subway aircraft wheelchair scooter drone" speed="10.07" length="15.92" width="3.50" shape="570.62,594.80,0.15 565.63,597.15,0.11 562.64,601.03,0.07 561.67,606.45,0.03">
            <param key="signalID" value="1640"/>
        </lane>
    </edge>
    <edge id=":1197_2" function="internal">
        <lane id=":1197_2_0" index="0" disallow="pedestrian tram rail_urban rail rail_electric rail_fast ship container cable_car subway aircraft wheelchair scooter drone" speed="8.82" length="17.36" width="3.50" shape="565.17,606.43,0.03 565.93,602.54,0.07 568.27,599.76,0.10 572.18,598.07,0.14 577.66,597.49,0.20">
            <param key="signalID" value="1641"/>
        </lane>
    </edge>
    <edge id=":1197_3" function="internal">
        <lane id=":1197_3_0" index="0" disallow="pedestrian tram rail_urban rail rail_electric rail_fast ship container cable_car subway aircraft wheelchair scooter drone" speed="9.74" length="21.41" width="3.50" shape="565.17,606.43,0.03 564.26,601.02,0.08 561.58,597.17,0.11 557.14,594.88,0.15 550.95,594.14,0.20">
            <param key="signalID" value="1640 1641"/>
        </lane>
    </edge>
    <edge id=":1197_4" function="internal">
        <lane id=":1197_4_0" index="0" disallow="pedestrian tram rail_urban rail rail_electric rail_fast ship container cable_car subway aircraft wheelchair scooter drone" speed="8.43" length="15.77" width="3.50" shape="550.97,597.64,0.20 555.63,598.17,0.15 558.97,599.81,0.11 560.98,602.57,0.07 561.67,606.45,0.03">
            <param key="signalID" value="1642"/>
        </lane>
    </edge>
    <edge id=":1197_5" function="internal">
        <lane id=":1197_5_0" index="0" disallow="pedestrian tram rail_urban rail rail_electric rail_fast ship container cable_car subway aircraft wheelchair scooter drone" speed="13.89" length="26.69" width="3.50" shape="550.97,597.64,0.20 577.66,597.49,0.20">
            <param key="signalID" value="1641 1642"/>
        </lane>
    </edge>
    <edge id=":1249_0" function="internal">
        <lane id=":1249_0_0" index="0" disallow="pedestrian tram rail_urban rail rail_electric rail_fast ship container cable_car subway aircraft wheelchair scooter drone" speed="7.41" length="11.85" width="3.50" shape="862.20,592.37,0.20 858.99,591.93,0.14 856.68,590.57,0.10 855.27,588.29,0.06 854.77,585.08,0.00">
            <param key="signalID" value="1643"/>
        </lane>
    </edge>
    <edge id=":1249_1" function="internal">
        <lane id=":1249_1_0" index="0" disallow="pedestrian tram rail_urban rail rail_electric rail_fast ship container cable_car subway aircraft wheelchair scooter drone" speed="13.89" length="18.14" width="3.50" shape="862.20,592.37,0.20 844.06,592.47,0.20">
            <param key="signalID" value="1645 1643"/>
        </lane>
    </edge>
    <edge id=":1249_2" function="internal">
        <lane id=":1249_2_0" index="0" disallow="pedestrian tram rail_urban rail rail_electric rail_fast ship container cable_car subway aircraft wheelchair scooter drone" speed="8.81" length="5.00" width="3.50" shape="862.20,592.37,0.20 857.47,593.07,0.14 857.28,593.19,0.14">
            <param key="signalID" value="1644"/>
        </lane>
    </edge>
    <edge id=":1249_12" function="internal">
        <lane id=":1249_12_0" index="0" disallow="pedestrian tram rail_urban rail rail_electric rail_fast ship container cable_car subway aircraft wheelchair scooter drone" speed="8.81" length="12.44" width="3.50" shape="857.28,593.19,0.14 854.11,595.12,0.10 852.13,598.52,0.06 851.51,603.27,0.00">
            <param key="signalID" value="1644"/>
        </lane>
    </edge>
    <edge id=":1249_3" function="internal">
        <lane id=":1249_3_0" index="0" disallow="pedestrian tram rail_urban rail rail_electric rail_fast ship container cable_car subway aircraft wheelchair scooter drone" speed="7.34" length="11.77" width="3.50" shape="855.01,603.22,0.00 855.43,600.02,0.06 856.77,597.73,0.10 859.03,596.34,0.14 862.22,595.87,0.20">
            <param key="signalID" value="1646 1643"/>
        </lane>
    </edge>
    <edge id=":1249_4" function="internal">
        <lane id=":1249_4_0" index="0" disallow="pedestrian tram rail_urban rail rail_electric rail_fast ship container cable_car subway aircraft wheelchair scooter drone" speed="13.89" length="18.14" width="3.50" shape="855.01,603.22,0.00 854.77,585.08,0.00">
            <param key="signalID" value="1644"/>
        </lane>
    </edge>
    <edge id=":1249_5" function="internal">
        <lane id=":1249_5_0" index="0" disallow="pedestrian tram rail_urban rail rail_electric rail_fast ship container cable_car subway aircraft wheelchair scooter drone" speed="8.87" length="5.01" width="3.50" shape="855.01,603.22,0.00 854.27,598.50,0.06 854.15,598.30,0.06">
            <param key="signalID" value="1644"/>
        </lane>
    </edge>
    <edge id=":1249_13" function="internal">
        <lane id=":1249_13_0" index="0" disallow="pedestrian tram rail_urban rail rail_electric rail_fast ship container cable_car subway aircraft wheelchair scooter drone" speed="8.87" length="12.46" width="3.50" shape="854.15,598.30,0.06 852.20,595.13,0.10 848.80,593.12,0.14 844.06,592.47,0.20">
            <param key="signalID" value="1644"/>
        </lane>
    </edge>
    <edge id=":1249_6" function="internal">
        <lane id=":1249_6_0" index="0" disallow="pedestrian tram rail_urban rail rail_electric rail_fast ship container cable_car subway aircraft wheelchair scooter drone" speed="7.41" length="11.85" width="3.50" shape="844.08,595.97,0.20 847.30,596.41,0.14 849.61,597.78,0.10 851.01,600.06,0.06 851.51,603.27,0.00">
            <param key="signalID" value="1645"/>
        </lane>
    </edge>
    <edge id=":1249_7" function="internal">
        <lane id=":1249_7_0" index="0" disallow="pedestrian tram rail_urban rail rail_electric rail_fast ship container cable_car subway aircraft wheelchair scooter drone" speed="13.89" length="18.14" width="3.50" shape="844.08,595.97,0.20 862.22,595.87,0.20">
            <param key="signalID" value="1645"/>
        </lane>
    </edge>
    <edge id=":1249_8" function="internal">
        <lane id=":1249_8_0" index="0" disallow="pedestrian tram rail_urban rail rail_electric rail_fast ship container cable_car subway aircraft wheelchair scooter drone" speed="8.81" length="5.00" width="3.50" shape="844.08,595.97,0.20 848.81,595.27,0.14 849.00,595.15,0.14">
            <param key="signalID" value="1645 1644"/>
        </lane>
    </edge>
    <edge id=":1249_14" function="internal">
        <lane id=":1249_14_0" index="0" disallow="pedestrian tram rail_urban rail rail_electric rail_fast ship container cable_car subway aircraft wheelchair scooter drone" speed="8.81" length="12.43" width="3.50" shape="849.00,595.15,0.14 852.17,593.22,0.10 854.15,589.82,0.06 854.77,585.08,0.00">
            <param key="signalID" value="1645 1644"/>
        </lane>
    </edge>
    <edge id=":1249_9" function="internal">
        <lane id=":1249_9_0" index="0" disallow="pedestrian tram rail_urban rail rail_electric rail_fast ship container cable_car subway aircraft wheelchair scooter drone" speed="7.34" length="11.75" width="3.50" shape="851.27,585.13,0.00 850.85,588.33,0.06 849.52,590.62,0.10 847.25,592.00,0.14 844.06,592.47,0.20">
            <param key="signalID" value="1646"/>
        </lane>
    </edge>
    <edge id=":1249_10" function="internal">
        <lane id=":1249_10_0" index="0" disallow="pedestrian tram rail_urban rail rail_electric rail_fast ship container cable_car subway aircraft wheelchair scooter drone" speed="13.89" length="18.14" width="3.50" shape="851.27,585.13,0.00 851.51,603.27,0.00">
            <param key="signalID" value="1643 1646"/>
        </lane>
    </edge>
    <edge id=":1249_11" function="internal">
        <lane id=":1249_11_0" index="0" disallow="pedestrian tram rail_urban rail rail_electric rail_fast ship container cable_car subway aircraft wheelchair scooter drone" speed="8.87" length="5.01" width="3.50" shape="851.27,585.13,0.00 852.01,589.85,0.06 852.13,590.04,0.06">
            <param key="signalID" value="1646"/>
        </lane>
    </edge>
    <edge id=":1249_15" function="internal">
        <lane id=":1249_15_0" index="0" disallow="pedestrian tram rail_urban rail rail_electric rail_fast ship container cable_car subway aircraft wheelchair scooter drone" speed="8.87" length="12.46" width="3.50" shape="852.13,590.04,0.06 854.08,593.21,0.10 857.48,595.22,0.14 862.22,595.87,0.20">
            <param key="signalID" value="1646"/>
        </lane>
    </edge>
    <edge id=":134_0" function="internal">
        <lane id=":134_0_0" index="0" disallow="pedestrian tram rail_urban rail rail_electric rail_fast ship container cable_car subway aircraft wheelchair scooter drone" speed="13.89" length="72.71" width="3.50" shape="503.48,142.12 497.44,125.94 488.86,107.84 479.05,90.36 469.36,76.06"/>